Program Version,EnergyPlus, Version 8.8.0-7c3bbe4830, YMD=2019.12.03 19:39
