Program Version,EnergyPlus, Version 8.8.0-7c3bbe4830, YMD=2019.12.03 19:39,IDD_Version 8.8.0
   ************* Beginning Zone Sizing Calculations
   ** Warning ** Weather file location will be used rather than entered (IDF) Location object.
   **   ~~~   ** ..Location object=CHICAGO_IL_USA TMY2-94846
   **   ~~~   ** ..Weather File Location=San Francisco Intl Ap CA USA TMY3 WMO#=724940
   **   ~~~   ** ..due to location differences, Latitude difference=[4.16] degrees, Longitude difference=[34.65] degrees.
   **   ~~~   ** ..Time Zone difference=[2.0] hour(s), Elevation difference=[98.95] percent, [188.00] meters.
   **  Fatal  ** EMS Runtime Language: did not find valid input for built-in function =@EXTCTRLOBS 0
   ...Summary of Errors that led to program termination:
   ..... Reference severe error count=0
   ..... Last severe error=
   ************* Warning:  Node connection errors not checked - most system input has not been read (see previous warning).
   ************* Fatal error -- final processing.  Program exited before simulations began.  See previous error messages.
   ************* EnergyPlus Warmup Error Summary. During Warmup: 0 Warning; 0 Severe Errors.
   ************* EnergyPlus Sizing Error Summary. During Sizing: 1 Warning; 0 Severe Errors.
   ************* EnergyPlus Terminated--Fatal Error Detected. 1 Warning; 0 Severe Errors; Elapsed Time=00hr 00min  0.26sec
